"""
 Modified by J Santner for use in cantera. Removed species with duplicate names and tritium species
SOME SMALL SPACING CHANGES BY J SANTNER

EXTENDED THIRD MILLENIUM IDEAL GAS AND CONDENSED PHASE THERMOCHEMICAL DATABASE
FOR COMBUSTION WITH UPDATES FROM ACTIVE THERMOCHEMICAL TABLES
Authors: Elke Goos, Alexander Burcat and Branko Ruscic.

This file was checked by Egil Jahnsen (Norway) <egil.jahnsen@vabb.no> for errors
and compatibility to automatic devices. Last check: July 16 2016

It is strictly forbiden to include this database as is or parts of it in any
commercial software firmware or hardware without permission from the authors.
Contact: Elke.Goos@dlr.de

*WARNING***The original 7-coeficient polynomials can accept molecules
containing only four different elements. The new CHEMKIN program was changed to
accept polynomials with 5 diferent elements. See the CHEMKIN manual.
Where the fifth element exist, the new Chemkin convention was folowed.

"""

units(length='cm', time='s', quantity='mol', act_energy='cal/mol')

ideal_gas(name='gas',
          elements="Ar He C O N H",
          species="""1-C10H7CH=CH2     CH                C3H4O
                     C5H4OH            C18H14            C10H2
                     C9H8              C23H48            C5H5N
                     C6H6              HCNO              C2H6N
                     C(GR)             C30H10            C13H12
                     C6H6O             C30H62            C7H7ON
                     C11               CNC               1,5-C6H4
                     C20H10            CO2               C4H6O
                     C5H8O             C3H4              C8H16,1-octene
                     CH3OH             CH3N              C2H3
                     HNC               C7H6O             C8H10(L)
                     C7H4              C12H8O            CHOH
                     C7H7O             C10H8O            C2
                     C11H24O           C6H5NO            2-C4H10O
                     C12H12            C2H3O-            C7H8
                     C8H18,n-octane    C2H2              C21H44
                     HONC              C17H36            CH3CN
                     C7H16,n-heptane   C6H10             C18H10
                     C2H5              C13H10            CH3CH
                     C9H10             C6H5NH2(L)        C5
                     H2NC=O            C2N               CH3OH(L)
                     C9H18             C4H9N             C6H7N
                     C8H16             C8H10             CNH2
                     C4H4              C13H9N            C5H9N
                     C2H5NH2           CH3-NH-CH3        CH2CO
                     C13H10O           C18H34            HNO
                     CN                1-C10H7-C2H5      C7H14,1-heptene
                     C18H36            C7H8(L)           C9H4
                     H4C3              C8H6O             C15H12
                     C7H14(L)          C22H18            C9H20O
                     COH               C3H2(1)           C2H6O
                     C5H7NO            C(cr)             C6H8
                     NCCH2O            He                C3H3N
                     NH                C2O               1,2-C6H4
                     C3H3ON            C2H2O             1,3-C6H4
                     NO2               1-C10H7C*O        C5H9OH
                     C4H8,cis2-buten   C3H5NH2           NH2
                     N2O2              C11H8             C14H14
                     C14H10O           C3H2N             C3H8
                     H2O(L)            C6H8O             C12
                     HNCO+             C6H12,cy-Hexane   C12H9N
                     NOH               C6H14O            C24H18
                     CH3-N*-CH3        C12H26O           C12H24
                     OCCN              HCHO              CH2O
                     C3H8O             C60(cr)           C3H9N
                     C3H7O             C10H16            C12H10
                     CH3NH             C2H6              C6H12(L)
                     CH2               C4H10             n-C20H42
                     C10H22O           H2CNO             1,2,3-C6H4-5-yne
                     C10H6             CH2CN             C18H12
                     CCN               NH2O*             O2
                     C7H14O            C3H3O             C14H8
                     CH2OH             C20H14            C5H6
                     C2H3NH2           HCCO              C7H16
                     H                 C3H4N             C11H10
                     C6H14(L)          NCCH2OH           CH2-NH-CH3
                     C4H6,cyclo-       C14H30            CH3CHO
                     HNOH              C5H8              HCN
                     C5H7O             C9H20(L)          C7H5N
                     C6H14             C7H8O             C4
                     HOCN              C17H12            C16H34
                     C4H10O            C4H2              C15H14
                     CH3CO             C23H46            C18H15N
                     CCO               C7H5NO            C3H6O
                     O                 C2H5OH            C14H28
                     C25H52            N2                C5H3N
                     C6H6N             CH5N              C8H8
                     C7H10             C11H12            C4H8
                     C4H4N             C6H12             C8
                     C5H5OH            C8H18,isooctane   C3H5N
                     C13H28            HNCO              C4H8O
                     C8H18             C6H5OH            C7H14
                     C8H18O            CH2OH2            C5H6O
                     HCNO+             C7H16O            NH2OH
                     C8H18(L)          ArH               C2H4
                     C10H8             C5H12             AR
                     CH2NC             1-C10H7O*         C2H3N
                     C12H8             C6H4              C4H4O
                     C19H40            C6H15N            C8H2
                     C12H10N           *CH2NH2           C7
                     H2                C13H14            CNO
                     C2H3O2            C6H6(L)           C21H12
                     C60               C9H20             C5H2
                     HCC-OH            C9H12             OH
                     C3H7N             C10H22            C4H7N
                     C12H2             C2H3O             C6H12O
                     CH2NO             C3H5OH            C8H14
                     CH2=CHO*          C5H11N            C3H6
                     HCNH2             N-UNDECANE        C9H16
                     C10H22(L)         N-C10H22          C2H4O
                     C25H20            CH3NO             C5H12O
                     NCCHO             CH3O              CHO
                     C9                C3H6O(L)          C10H14
                     C8H7N             C4H7O             C10H20
                     C16H34O           C7H5O             CH3C(CH3)2CH3
                     T-C4H10O          C4H8,tr2-butene   C14H10
                     C2H3OH            C6H2              C12H18
                     C3H2              N2O               CH3
                     1-2-C10H10        1-C4H8            C10H7-CCH
                     NT                C10H10            1-C10H7CHO
                     C22H46            1,4-C6H4          C5H4N
                     C7H16(L)          1-C10H7CH2CH2OH   C8H8O
                     C2H5OH(L)         C5H4              C6H10,cyclo-
                     *C(O)CH2NH2       HCCN              C2H5N
                     CH2N              C3                C
                     C5H5O             C10H18            CH4
                     H2O(cr)           C70               C9H7N
                     C10               C6H14,n-hexane    H2O
                     C8H12             C70(cr)           N-DODECANE
                     C4H5N             C4H9O             C3H2(3)
                     C7H12             C7H15O            p-C13H12
                     C3H5O             C11N              C2H5O
                     C5H12,i-pentane   N                 C14H12
                     C(NO)             C4H5O             NO
                     C5H10O            C24H12            CH3NC
                     C5H11OH           C2H               C5H10
                     C20H12            C16H10            COC
                     NH3               C6                CO
                     C5H10,cyclo-      C15H32            C6H5O
                     C4H6              C22H14            C32H14
                     C18H38            O3                1-C10H7-CH3
                     C8H6              C15H30            C5H4O
                     C3HN              C5H12O(L)""",
          initial_state=state(temperature=300.0, pressure=OneAtm))

#-------------------------------------------------------------------------------
# Species data
#-------------------------------------------------------------------------------

species(name='1-C10H7CH=CH2',
        atoms='C:12 H:10',
        thermo=(NASA([200.00, 1000.00],
                     [-1.19668570E+00,  7.06115758E-02,  4.27863652E-05,
                      -1.21989834E-07,  5.83744402E-11,  2.29191651E+04,
                       3.30370914E+01]),
                NASA([1000.00, 6000.00],
                     [ 2.36421335E+01,  3.60544766E-02, -1.31138294E-05,
                       2.13119639E-09, -1.28115416E-13,  1.46625473E+04,
                      -1.02784235E+02])),
        note='T11/98')

species(name='CH',
        atoms='C:1 H:1',
        thermo=(NASA([200.00, 1000.00],
                     [ 3.48975830E+00,  3.24321600E-04, -1.68997510E-06,
                       3.16284200E-09, -1.40618030E-12,  7.06607550E+04,
                       2.08428410E+00]),
                NASA([1000.00, 6000.00],
                     [ 2.52093690E+00,  1.76536390E-03, -4.61476600E-07,
                       5.92896750E-11, -3.34745010E-15,  7.09948780E+04,
                       7.40518290E+00])),
        note='IU3/03')

species(name='C3H4O',
        atoms='C:3 H:4 O:1',
        thermo=(NASA([200.00, 1000.00],
                     [ 4.69868861E+00,  4.99965957E-03,  4.38587397E-05,
                      -6.12883900E-08,  2.48508985E-11, -1.00875286E+04,
                       7.29812046E+00]),
                NASA([1000.00, 6000.00],
                     [ 8.20654919E+00,  1.28492916E-02, -4.64285331E-06,
                       7.51738738E-10, -4.51298116E-14, -1.18838341E+04,
                      -1.49881933E+01])),
        note='AcroleinT11/10')

species(name='C5H4OH',
        atoms='C:5 H:5 O:1',
        thermo=(NASA([200.00, 1000.00],
                     [-1.74078500E+00,  5.05423476E-02, -1.59658908E-05,
                      -2.73894335E-08,  1.84710017E-11,  6.52156699E+03,
                       3.30332364E+01]),
                NASA([1000.00, 6000.00],
                     [ 1.32735713E+01,  1.53094185E-02, -5.50115205E-06,
                       8.88634759E-10, -5.32324947E-14,  2.27075873E+03,
                      -4.54766674E+01])),
        note='Cyclo-2,4T5/10')

species(name='C18H14',
        atoms='C:18 H:14',
        thermo=(NASA([298.15, 1000.00],
                     [-9.66438341E+00,  1.58016024E-01, -7.86837266E-05,
                      -2.55580240E-08,  2.72668687E-11,  1.78769836E+04,
                       7.06225956E+01]),
                NASA([1000.00, 1500.00],
                     [ 3.50371081E+01,  6.38997126E-03,  6.03030884E-05,
                      -3.34589269E-08,  3.10551788E-12,  9.46707599E+03,
                      -1.47357751E+02])),
        note='1-Et-PyreneT11/13')

species(name='C10H2',
        atoms='C:10 H:2',
        thermo=(NASA([200.00, 1000.00],
                     [-1.98080356E-01,  1.14321283E-01, -2.09917725E-04,
                       1.90999806E-07, -6.60616665E-11,  1.31190452E+05,
                       2.25338627E+01]),
                NASA([1000.00, 6000.00],
                     [ 2.01787996E+01,  1.29490181E-02, -4.70320293E-06,
                       7.65049332E-10, -4.60463930E-14,  1.27450429E+05,
                      -7.25519527E+01])),
        note='linearT11/07')

species(name='C9H8',
        atoms='C:9 H:8',
        thermo=(NASA([200.00, 1000.00],
                     [-6.81899560E-01,  4.16587045E-02,  7.07413209E-05,
                      -1.34308856E-07,  5.99158843E-11,  1.77050360E+04,
                       2.97813474E+01]),
                NASA([1000.00, 6000.00],
                     [ 1.73186757E+01,  2.89827586E-02, -1.06050551E-05,
                       1.73345448E-09, -1.04679146E-13,  1.11514275E+04,
                      -7.15553836E+01])),
        note='INDENET9/96')

species(name='C23H48',
        atoms='C:23 H:48',
        thermo=(NASA([298.15, 1000.00],
                     [ 1.98141355E+00,  2.27891520E-01, -4.15609691E-05,
                      -1.01254176E-07,  5.82107849E-11, -7.24279174E+04,
                       4.99707530E+01]),
                NASA([1000.00, 5000.00],
                     [ 6.16617365E+01,  1.20847412E-01, -4.44483599E-05,
                       7.71912100E-09, -5.11336789E-13, -9.31226228E+04,
                      -2.75442412E+02])),
        note='tricosanT5/10')

species(name='C5H5N',
        atoms='C:5 H:5 N:1',
        thermo=(NASA([200.00, 1000.00],
                     [ 2.78936308E+00,  3.21194174E-02,  3.46293916E-06,
                      -3.07848335E-08,  1.58396908E-11,  2.65017082E+04,
                       1.51281661E+01]),
                NASA([1000.00, 6000.00],
                     [ 1.18240384E+01,  1.67108077E-02, -6.02084839E-06,
                       9.70590626E-10, -5.80113765E-14,  2.35732846E+04,
                      -3.37413725E+01])),
        note='1-CyanoA2/05')

species(name='C6H6',
        atoms='C:6 H:6',
        thermo=(NASA([200.00, 1000.00],
                     [ 5.04818632E-01,  1.85020642E-02,  7.38345881E-05,
                      -1.18135741E-07,  5.07210429E-11,  8.55247913E+03,
                       2.16412893E+01]),
                NASA([1000.00, 6000.00],
                     [ 1.10809576E+01,  2.07176746E-02, -7.52145991E-06,
                       1.22320984E-09, -7.36091279E-14,  4.30641035E+03,
                      -4.00413310E+01])),
        note='BENZENEg6/01')

species(name='HCNO',
        atoms='C:1 H:1 N:1 O:1',
        thermo=(NASA([200.00, 1000.00],
                     [ 6.07949401E-01,  2.82182431E-02, -4.60451618E-05,
                       3.82559486E-08, -1.23226501E-11,  1.90714209E+04,
                       1.69199098E+01]),
                NASA([1000.00, 6000.00],
                     [ 5.91979744E+00,  4.00114600E-03, -1.42063343E-06,
                       2.27569621E-10, -1.35504870E-14,  1.80385534E+04,
                      -8.26935223E+00])),
        note='FulminicAcidA5/05')

species(name='C2H6N',
        atoms='C:2 H:6 N:1',
        thermo=(NASA([200.00, 1000.00],
                     [ 3.85938788E+00,  5.20510615E-03,  4.71051064E-05,
                      -6.50879630E-08,  2.63825293E-11,  1.63849609E+04,
                       7.33693995E+00]),
                NASA([1000.00, 6000.00],
                     [ 6.57009633E+00,  1.55707719E-02, -5.50295648E-06,
                       8.78420655E-10, -5.21657737E-14,  1.48227836E+04,
                      -1.08297258E+01])),
        note='C2H5NH*T1/13')

species(name='C(GR)',
        atoms='C:1',
        thermo=(NASA([200.00, 1000.00],
                     [-3.03744539E-01,  4.36036227E-03,  1.98268825E-06,
                      -6.43472598E-09,  2.99601320E-12, -1.09458288E+02,
                       1.08301475E+00]),
                NASA([1000.00, 6000.00],
                     [ 1.59828070E+00,  1.43065097E-03, -5.09435105E-07,
                       8.64401302E-11, -5.34349530E-15, -7.45940284E+02,
                      -9.30332005E+00])),
        note='REFELEMENTT3/10')

species(name='C30H10',
        atoms='C:30 H:10',
        thermo=(NASA([200.00, 1000.00],
                     [-1.01155169E+01,  1.66903013E-01,  4.81188120E-05,
                      -2.20386788E-07,  1.09998887E-10,  1.32581988E+05,
                       6.69332104E+01]),
                NASA([1000.00, 6000.00],
                     [ 5.22724797E+01,  6.15938015E-02, -2.29022168E-05,
                       3.78466158E-09, -2.30318374E-13,  1.12525252E+05,
                      -2.70374592E+02])),
        note='Half-BuckT12/07')

species(name='C13H12',
        atoms='C:13 H:12',
        thermo=(NASA([200.00, 1000.00],
                     [ 1.70749233E+00,  3.70722686E-02,  1.53928694E-04,
                      -2.41954650E-07,  1.02743229E-10,  1.67215993E+04,
                       2.61209040E+01]),
                NASA([1000.00, 6000.00],
                     [ 2.33823671E+01,  4.36035134E-02, -1.59318261E-05,
                       2.59973976E-09, -1.56760199E-13,  7.84267591E+03,
                      -1.00997944E+02])),
        note='MeBiPhenylT10/13')

species(name='C6H6O',
        atoms='C:6 H:6 O:1',
        thermo=(NASA([200.00, 1000.00],
                     [ 1.42905833E+00,  2.75022373E-02,  4.89356224E-05,
                      -8.89267073E-08,  3.89096730E-11, -4.52491549E+03,
                       2.10316391E+01]),
                NASA([1000.00, 6000.00],
                     [ 1.26746353E+01,  2.18954738E-02, -7.93048713E-06,
                       1.28766673E-09, -7.74049768E-14, -8.76791877E+03,
                      -4.29349247E+01])),
        note='2,4-cycloT06/03')

species(name='C30H62',
        atoms='C:30 H:62',
        thermo=(NASA([298.15, 1000.00],
                     [-7.00876986E+00,  3.63734117E-01, -2.30128935E-04,
                       7.07462782E-08, -8.71124990E-12, -9.18055549E+04,
                       1.00652874E+02]),
                NASA([1000.00, 5000.00],
                     [ 6.82706267E+01,  1.77135251E-01, -6.82283914E-05,
                       1.22928318E-08, -8.38877677E-13, -1.14713479E+05,
                      -2.96193791E+02])),
        note='TriacotaneT2/10')

species(name='C7H7ON',
        atoms='C:7 H:7 N:1 O:1',
        thermo=(NASA([200.00, 1000.00],
                     [ 3.03223188E+00,  3.07722631E-02,  6.39184827E-05,
                      -1.12392293E-07,  4.88713241E-11, -7.60469118E+03,
                       1.66172921E+01]),
                NASA([1000.00, 6000.00],
                     [ 1.62880808E+01,  2.59050758E-02, -9.43221844E-06,
                       1.53322647E-09, -9.21563342E-14, -1.26653966E+04,
                      -5.91426335E+01])),
        note='AcetPyridinT5/12')

species(name='C11',
        atoms='C:11',
        thermo=(NASA([200.00, 1000.00],
                     [ 4.06491662E+00,  6.56230883E-02, -8.94845675E-05,
                       6.89622187E-08, -2.20412080E-11,  2.12070809E+05,
                       8.12045063E+00]),
                NASA([1000.00, 6000.00],
                     [ 1.87252961E+01,  1.23291396E-02, -4.66007265E-06,
                       7.77713938E-10, -4.76289198E-14,  2.08429983E+05,
                      -6.50383883E+01])),
        note='linearSingleEG8/09')

species(name='CNC',
        atoms='C:2 N:1',
        thermo=(NASA([200.00, 1000.00],
                     [ 3.98662721E+00,  5.23128299E-03, -6.00388565E-07,
                      -3.37882585E-09,  1.75803055E-12,  7.98756324E+04,
                       3.89919746E+00]),
                NASA([1000.00, 6000.00],
                     [ 5.93219820E+00,  1.57955995E-03, -6.12495852E-07,
                       1.03897382E-10, -6.43334740E-15,  7.92421706E+04,
                      -6.60234593E+00])),
        note='ATcT/A')

species(name='1,5-C6H4',
        atoms='C:6 H:4',
        thermo=(NASA([200.00, 1000.00],
                     [ 2.21633052E-01,  5.81529280E-02, -7.13934059E-05,
                       4.76725943E-08, -1.28753162E-11,  6.08064933E+04,
                       2.23249817E+01]),
                NASA([1000.00, 6000.00],
                     [ 1.22328906E+01,  1.36328237E-02, -4.80871703E-06,
                       7.66968774E-10, -4.55328106E-14,  5.80208413E+04,
                      -3.69903232E+01])),
        note='transA02/05')

species(name='C20H10',
        atoms='C:20 H:10',
        thermo=(NASA([200.00, 1000.00],
                     [-3.53752796E+00,  8.75243280E-02,  8.69001904E-05,
                      -1.87189202E-07,  8.34302617E-11,  5.24972787E+04,
                       4.13547788E+01]),
                NASA([1000.00, 6000.00],
                     [ 3.06657686E+01,  5.29599580E-02, -1.95066691E-05,
                       3.20304721E-09, -1.94054165E-13,  4.01719213E+04,
                      -1.49703428E+02])),
        note='CORANNULA5/05')

species(name='CO2',
        atoms='C:1 O:2',
        thermo=(NASA([200.00, 1000.00],
                     [ 2.35681300E+00,  8.98412990E-03, -7.12206320E-06,
                       2.45730080E-09, -1.42885480E-13, -4.83719710E+04,
                       9.90090350E+00]),
                NASA([1000.00, 6000.00],
                     [ 4.63651110E+00,  2.74145690E-03, -9.95897590E-07,
                       1.60386660E-10, -9.16198570E-15, -4.90249040E+04,
                      -1.93489550E+00])),
        note='L7/88')

species(name='C4H6O',
        atoms='C:4 H:6 O:1',
        thermo=(NASA([200.00, 1000.00],
                     [ 3.23610490E+00,  2.32108989E-02,  2.16181248E-05,
                      -4.71002349E-08,  2.13586475E-11, -1.27248836E+04,
                       1.29610596E+01]),
                NASA([1000.00, 6000.00],
                     [ 1.01126741E+01,  1.75781585E-02, -6.32511961E-06,
                       1.01861813E-09, -6.07899499E-14, -1.52164935E+04,
                      -2.56209931E+01])),
        note='H3CCH2CH=CT05/08')

species(name='C5H8O',
        atoms='C:5 H:8 O:1',
        thermo=(NASA([200.00, 1000.00],
                     [ 2.19956938E+00,  1.63298815E-02,  8.59366418E-05,
                      -1.28808609E-07,  5.37997972E-11, -2.56534705E+04,
                       1.70106368E+01]),
                NASA([1000.00, 6000.00],
                     [ 1.18281325E+01,  2.54559875E-02, -9.23804811E-06,
                       1.50152136E-09, -9.03124493E-14, -2.99197006E+04,
                      -4.10040646E+01])),
        note='CYC5H8=OT7/01')

species(name='C3H4',
        atoms='C:3 H:4',
        thermo=(NASA([200.00, 1000.00],
                     [ 2.61304450E+00,  1.21225750E-02,  1.85398800E-05,
                      -3.45251490E-08,  1.53350790E-11,  2.15415670E+04,
                       1.02261390E+01]),
                NASA([1000.00, 6000.00],
                     [ 6.31687220E+00,  1.11337280E-02, -3.96293780E-06,
                       6.35642380E-10, -3.78755400E-14,  2.01174950E+04,
                      -1.09957660E+01])),
        note='ALLENEL8/89')

species(name='C8H16,1-octene',
        atoms='C:8 H:16',
        thermo=(NASA([200.00, 1000.00],
                     [ 1.01483726E+01,  1.25438065E-03,  1.85245518E-04,
                      -2.49087148E-07,  1.00247926E-10, -1.43267638E+04,
                      -8.51901783E+00]),
                NASA([1000.00, 6000.00],
                     [ 2.43378771E+01,  3.22574569E-02, -1.03389736E-05,
                       1.65359772E-09, -1.00909018E-13, -2.14383953E+04,
                      -9.82405127E+01])),
        note='P4/87')

species(name='CH3OH',
        atoms='C:1 H:4 O:1',
        thermo=(NASA([200.00, 1000.00],
                     [ 5.65851051E+00, -1.62983419E-02,  6.91938156E-05,
                      -7.58372926E-08,  2.80427550E-11, -2.56119736E+04,
                      -8.97330508E-01]),
                NASA([1000.00, 6000.00],
                     [ 3.52726795E+00,  1.03178783E-02, -3.62892944E-06,
                       5.77448016E-10, -3.42182632E-14, -2.60028834E+04,
                       5.16758693E+00])),
        note='MetanolT06/02')

species(name='CH3N',
        atoms='C:1 H:3 N:1',
        thermo=(NASA([200.00, 1000.00],
                     [ 4.79302577E+00, -1.26841692E-02,  5.69766521E-05,
                      -6.34985251E-08,  2.37023330E-11,  9.41385818E+03,
                       1.10277996E+00]),
                NASA([1000.00, 6000.00],
                     [ 3.44258358E+00,  8.37600036E-03, -2.97819078E-06,
                       4.77352867E-10, -2.84295062E-14,  8.97134621E+03,
                       3.95595397E+00])),
        note='(H2C=NH)T8/11')

species(name='C2H3',
        atoms='C:2 H:3',
        thermo=(NASA([200.00, 1000.00],
                     [ 3.36377642E+00,  2.65765722E-04,  2.79620704E-05,
                      -3.72986942E-08,  1.51590176E-11,  3.44749589E+04,
                       7.91510092E+00]),
                NASA([1000.00, 6000.00],
                     [ 4.15026763E+00,  7.54021341E-03, -2.62997847E-06,
                       4.15974048E-10, -2.45407509E-14,  3.38566380E+04,
                       1.72812235E+00])),
        note='VinylRadiATcT/A')

species(name='HNC',
        atoms='C:1 H:1 N:1',
        thermo=(NASA([200.00, 1000.00],
                     [ 2.30186822E+00,  1.54157449E-02, -3.13261898E-05,
                       3.08816218E-08, -1.11912204E-11,  2.19306327E+04,
                       8.14749128E+00]),
                NASA([1000.00, 6000.00],
                     [ 4.22248262E+00,  2.59458082E-03, -8.58480324E-07,
                       1.30744940E-10, -7.50339813E-15,  2.17156730E+04,
                      -7.79706410E-02])),
        note='ATcT/A')

species(name='C7H6O',
        atoms='C:7 H:6 O:1',
        thermo=(NASA([200.00, 1000.00],
                     [ 1.57674040E+00,  3.02180643E-02,  5.99285319E-05,
                      -1.09114726E-07,  4.80953568E-11, -6.86186490E+03,
                       2.06412628E+01]),
                NASA([1000.00, 6000.00],
                     [ 1.56015162E+01,  2.18827888E-02, -8.01082769E-06,
                       1.30962791E-09, -7.91372656E-14, -1.20437393E+04,
                      -5.86979950E+01])),
        note='C6H5-CHOT08/08')

species(name='C8H10(L)',
        atoms='C:8 H:10',
        thermo=(NASA([298.15, 298.15],
                     [ 2.23422037E+01,  1.30456575E-04, -3.57358139E-07,
                       3.23333669E-10,  0.00000000E+00, -8.16415523E+03,
                      -9.66315699E+01]),
                NASA([298.15, 408.83],
                     [ 0.00000000E+00,  0.00000000E+00,  0.00000000E+00,
                       0.00000000E+00,  0.00000000E+00,  0.00000000E+00,
                       0.00000000E+00])),
        note='EthylBenzB5/16')

species(name='C7H4',
        atoms='C:7 H:4',
        thermo=(NASA([200.00, 1000.00],
                     [-1.08415641E+00,  8.25042003E-02, -1.25034817E-04,
                       9.88369253E-08, -3.06793177E-11,  8.48715121E+04,
                       2.74900595E+01]),
                NASA([1000.00, 6000.00],
                     [ 1.47579036E+01,  1.39510918E-02, -4.89898038E-06,
                       7.78963744E-10, -4.61443141E-14,  8.16485832E+04,
                      -4.84301304E+01])),
        note='CH(CCH)3T4/13')

species(name='C12H8O',
        atoms='C:12 H:8 O:1',
        thermo=(NASA([200.00, 1000.00],
                     [-1.94560629E+00,  6.63036054E-02,  5.55840459E-05,
                      -1.35441751E-07,  6.29654469E-11,  4.01894017E+03,
                       3.50530326E+01]),
                NASA([1000.00, 6000.00],
                     [ 2.38920518E+01,  3.42247501E-02, -1.25919439E-05,
                       2.06597572E-09, -1.25092468E-13, -4.81278402E+03,
                      -1.07323610E+02])),
        note='DiBenzoFuT5/12')

species(name='CHOH',
        atoms='C:1 H:2 O:1',
        thermo=(NASA([200.00, 1000.00],
                     [ 4.72862471E+00, -1.02082828E-02,  4.21639528E-05,
                      -4.64774522E-08,  1.72559970E-11,  5.31829869E+04,
                       1.69093263E+00]),
                NASA([1000.00, 6000.00],
                     [ 3.63500546E+00,  5.45479239E-03, -1.91285077E-06,
                       3.03882849E-10, -1.79904440E-14,  5.28968001E+04,
                       4.34543184E+00])),
        note='transHydrT12/14')

species(name='C7H7O',
        atoms='C:7 H:7 O:1',
        thermo=(NASA([200.00, 1000.00],
                     [ 1.39523472E+00,  3.46572164E-02,  5.32061504E-05,
                      -1.03005070E-07,  4.60514101E-11,  1.28986478E+04,
                       2.24851068E+01]),
                NASA([1000.00, 6000.00],
                     [ 1.53622870E+01,  2.44734564E-02, -8.88520657E-06,
                       1.44086796E-09, -8.64632894E-14,  7.83668460E+03,
                      -5.60472783E+01])),
        note='C6H5CH2OT10/06')

species(name='C10H8O',
        atoms='C:10 H:8 O:1',
        thermo=(NASA([200.00, 1000.00],
                     [-2.08768263E+00,  7.68099506E-02, -1.53593023E-05,
                      -4.04657632E-08,  2.33759779E-11, -6.29056385E+03,
                       3.43331051E+01]),
                NASA([1000.00, 6000.00],
                     [ 2.08930252E+01,  3.10560066E-02, -1.14407562E-05,
                       1.87872866E-09, -1.13823881E-13, -1.35886443E+04,
                      -8.88597101E+01])),
        note='NaphtolT7/98')

species(name='C2',
        atoms='C:2',
        thermo=(NASA([200.00, 1000.00],
                     [ 3.69386038E+00, -1.84767427E-03,  5.23712984E-06,
                      -3.83965401E-09,  8.61135711E-13,  9.83822318E+04,
                       2.23677006E+00]),
                NASA([1000.00, 6000.00],
                     [ 3.25289233E+00,  1.23190307E-03, -4.50354156E-07,
                       7.49356656E-11, -4.57925077E-15,  9.83737348E+04,